4Bus-DY-Bal/4busDYBal_VLN_Node.Txt

LINE-GROUND and LINE-LINE VOLTAGES BY BUS & NODE

Bus       Node    VLN (kV)   Angle      pu     Base kV    Node-Node   VLL (kV)  Angle      pu

SOURCEBUS 1       7.1994 /_    0.0   0.99998    12.470        1-2      12.47 /_   30.0   0.99998
   -      2       7.1993 /_ -120.0   0.99997    12.470        2-3      12.47 /_  -90.0   0.99996
   -      3       7.1993 /_  120.0   0.99997    12.470        3-1      12.47 /_  150.0   0.99997
N2 ...... 1       7.1267 /_   -0.3   0.98988    12.470        1-2     12.349 /_   29.6   0.99031
   -      2       7.1188 /_ -120.5   0.98879    12.470        2-3      12.31 /_  -90.4   0.98721
   -      3       7.1112 /_  119.7   0.98772    12.470        3-1     12.331 /_  149.7   0.98887
N3 ...... 1        2.273 /_  -32.1   0.94638     4.160        1-2     3.9299 /_   -3.1   0.94469
   -      2       2.2337 /_ -153.5   0.93002     4.160        2-3     3.8344 /_ -124.4   0.92174
   -      3       2.1742 /_   85.6   0.90524     4.160        3-1     3.8068 /_  117.5   0.91509
N4 ...... 1       2.1438 /_  -34.1   0.89258     4.160        1-2     3.5548 /_   -7.3   0.85453
   -      2       1.9045 /_ -156.8   0.79294     4.160        2-3      3.357 /_ -132.6   0.80697
   -      3       1.7988 /_   73.2   0.74895     4.160        3-1     3.1809 /_  113.3   0.76464
